<?xml version="1.0" encoding="UTF-8"?>
<net version="1.16" junctionCornerDetail="5" limitTurnSpeed="5.50" xmlns:xsi="http://www.w3.org/2001/XMLSchema-instance" xsi:noNamespaceSchemaLocation="http://sumo.dlr.de/xsd/net_file.xsd">
    <location netOffset="0.00,0.00" convBoundary="0.00,0.00,1000.00,0.00" origBoundary="-10000000000.00,-10000000000.00,10000000000.00,10000000000.00" projParameter="!"/>
    <edge id=":j0_0" function="internal">
        <lane id=":j0_0_0" index="0" speed="13.89" length="1.00" shape="0.00,-1.60 0.00,-1.60"/>
    </edge>
    <edge id=":j1_0" function="internal">
        <lane id=":j1_0_0" index="0" speed="13.89" length="1.00" shape="1000.00,-1.60 1000.00,-1.60"/>
    </edge>
    <edge id="highway_main" from="j0" to="j1" priority="3">
        <lane id="highway_main_0" index="0" speed="33.33" length="1000.00" shape="0.00,-1.60 1000.00,-1.60"/>
        <lane id="highway_main_1" index="1" speed="33.33" length="1000.00" shape="0.00,-4.80 1000.00,-4.80"/>
        <lane id="highway_main_2" index="2" speed="33.33" length="1000.00" shape="0.00,-8.00 1000.00,-8.00"/>
    </edge>
    <edge id="highway_return" from="j1" to="j0" priority="3">
        <lane id="highway_return_0" index="0" speed="33.33" length="1000.00" shape="1000.00,1.60 0.00,1.60"/>
    </edge>
    <junction id="j0" type="dead_end" x="0.00" y="0.00" incLanes="" intLanes="" shape="0.00,0.00 0.00,-9.60"/>
    <junction id="j1" type="dead_end" x="1000.00" y="0.00" incLanes="highway_main_0 highway_main_1 highway_main_2" intLanes="" shape="1000.00,-9.60 1000.00,0.00"/>
</net>
